 CRYSTAL 
 PRIMVEC 
   3.56699999997978       0.000000000000000E+000  0.000000000000000E+000
  0.000000000000000E+000   3.56699999997978       0.000000000000000E+000
  0.000000000000000E+000  0.000000000000000E+000   3.56699999997978     
 # empty line
 PRIMCOORD            1
           8           1
  6      0.44587500          0.44587500          0.44587500
  6      2.22937500          0.44587500          2.22937500
  6      0.44587500          2.22937500          2.22937500
  6      2.22937500          2.22937500          0.44587500
  6      3.12112500          1.33762500          1.33762500
  6      3.12112500          3.12112500          3.12112500
  6      1.33762500          1.33762500          3.12112500
  6      1.33762500          3.12112500          1.33762500
